/*--------------------------------*- C++ -*----------------------------------*\
| =========                 |                                                 |
| \\      /  F ield         | OpenFOAM: The Open Source CFD Toolbox           |
|  \\    /   O peration     | Version:  2012                                  |
|   \\  /    A nd           | Website:  www.openfoam.com                      |
|    \\/     M anipulation  |                                                 |
\*---------------------------------------------------------------------------*/
FoamFile
{
    version     2.0;
    format      ascii;
    class       polyBoundaryMesh;
    location    "constant/fluid/polyMesh";
    object      boundary;
}
// * * * * * * * * * * * * * * * * * * * * * * * * * * * * * * * * * * * * * //

12
(
    inlet
    {
        type            patch;
        nFaces          0;
        startFace       47532;
    }
    outlet
    {
        type            patch;
        nFaces          143;
        startFace       47532;
    }
    right
    {
        type            wall;
        inGroups        1(wall);
        nFaces          0;
        startFace       47675;
    }
    left
    {
        type            wall;
        inGroups        1(wall);
        nFaces          925;
        startFace       47675;
    }
    top
    {
        type            wall;
        inGroups        1(wall);
        nFaces          0;
        startFace       48600;
    }
    bottom
    {
        type            wall;
        inGroups        1(wall);
        nFaces          901;
        startFace       48600;
    }
    interface
    {
        type            wall;
        inGroups        1(wall);
        nFaces          3089;
        startFace       49501;
    }
    procBoundary1to0
    {
        type            processor;
        inGroups        1(processor);
        nFaces          753;
        startFace       52590;
        matchTolerance  0.0001;
        transform       unknown;
        myProcNo        1;
        neighbProcNo    0;
    }
    procBoundary1to2
    {
        type            processor;
        inGroups        1(processor);
        nFaces          153;
        startFace       53343;
        matchTolerance  0.0001;
        transform       unknown;
        myProcNo        1;
        neighbProcNo    2;
    }
    procBoundary1to3
    {
        type            processor;
        inGroups        1(processor);
        nFaces          1678;
        startFace       53496;
        matchTolerance  0.0001;
        transform       unknown;
        myProcNo        1;
        neighbProcNo    3;
    }
    procBoundary1to4
    {
        type            processor;
        inGroups        1(processor);
        nFaces          21;
        startFace       55174;
        matchTolerance  0.0001;
        transform       unknown;
        myProcNo        1;
        neighbProcNo    4;
    }
    procBoundary1to5
    {
        type            processor;
        inGroups        1(processor);
        nFaces          927;
        startFace       55195;
        matchTolerance  0.0001;
        transform       unknown;
        myProcNo        1;
        neighbProcNo    5;
    }
)

// ************************************************************************* //
