/*--------------------------------*- C++ -*----------------------------------*\
| =========                 |                                                 |
| \\      /  F ield         | OpenFOAM: The Open Source CFD Toolbox           |
|  \\    /   O peration     | Version:  2012                                  |
|   \\  /    A nd           | Website:  www.openfoam.com                      |
|    \\/     M anipulation  |                                                 |
\*---------------------------------------------------------------------------*/
FoamFile
{
    version     2.0;
    format      ascii;
    class       polyBoundaryMesh;
    location    "constant/fluid/polyMesh";
    object      boundary;
}
// * * * * * * * * * * * * * * * * * * * * * * * * * * * * * * * * * * * * * //

11
(
    inlet
    {
        type            patch;
        nFaces          240;
        startFace       47046;
    }
    outlet
    {
        type            patch;
        nFaces          0;
        startFace       47286;
    }
    right
    {
        type            wall;
        inGroups        1(wall);
        nFaces          900;
        startFace       47286;
    }
    left
    {
        type            wall;
        inGroups        1(wall);
        nFaces          0;
        startFace       48186;
    }
    top
    {
        type            wall;
        inGroups        1(wall);
        nFaces          990;
        startFace       48186;
    }
    bottom
    {
        type            wall;
        inGroups        1(wall);
        nFaces          0;
        startFace       49176;
    }
    interface
    {
        type            wall;
        inGroups        1(wall);
        nFaces          856;
        startFace       49176;
    }
    procBoundary6to2
    {
        type            processor;
        inGroups        1(processor);
        nFaces          1024;
        startFace       50032;
        matchTolerance  0.0001;
        transform       unknown;
        myProcNo        6;
        neighbProcNo    2;
    }
    procBoundary6to4
    {
        type            processor;
        inGroups        1(processor);
        nFaces          1097;
        startFace       51056;
        matchTolerance  0.0001;
        transform       unknown;
        myProcNo        6;
        neighbProcNo    4;
    }
    procBoundary6to5
    {
        type            processor;
        inGroups        1(processor);
        nFaces          47;
        startFace       52153;
        matchTolerance  0.0001;
        transform       unknown;
        myProcNo        6;
        neighbProcNo    5;
    }
    procBoundary6to7
    {
        type            processor;
        inGroups        1(processor);
        nFaces          364;
        startFace       52200;
        matchTolerance  0.0001;
        transform       unknown;
        myProcNo        6;
        neighbProcNo    7;
    }
)

// ************************************************************************* //
