/*--------------------------------*- C++ -*----------------------------------*\
| =========                 |                                                 |
| \\      /  F ield         | OpenFOAM: The Open Source CFD Toolbox           |
|  \\    /   O peration     | Version:  2012                                  |
|   \\  /    A nd           | Website:  www.openfoam.com                      |
|    \\/     M anipulation  |                                                 |
\*---------------------------------------------------------------------------*/
FoamFile
{
    version     2.0;
    format      ascii;
    class       polyBoundaryMesh;
    location    "constant/fluid/polyMesh";
    object      boundary;
}
// * * * * * * * * * * * * * * * * * * * * * * * * * * * * * * * * * * * * * //

10
(
    inlet
    {
        type            patch;
        nFaces          143;
        startFace       47458;
    }
    outlet
    {
        type            patch;
        nFaces          0;
        startFace       47601;
    }
    right
    {
        type            wall;
        inGroups        1(wall);
        nFaces          0;
        startFace       47601;
    }
    left
    {
        type            wall;
        inGroups        1(wall);
        nFaces          1043;
        startFace       47601;
    }
    top
    {
        type            wall;
        inGroups        1(wall);
        nFaces          0;
        startFace       48644;
    }
    bottom
    {
        type            wall;
        inGroups        1(wall);
        nFaces          841;
        startFace       48644;
    }
    interface
    {
        type            wall;
        inGroups        1(wall);
        nFaces          3652;
        startFace       49485;
    }
    procBoundary0to1
    {
        type            processor;
        inGroups        1(processor);
        nFaces          753;
        startFace       53137;
        matchTolerance  0.0001;
        transform       unknown;
        myProcNo        0;
        neighbProcNo    1;
    }
    procBoundary0to2
    {
        type            processor;
        inGroups        1(processor);
        nFaces          1085;
        startFace       53890;
        matchTolerance  0.0001;
        transform       unknown;
        myProcNo        0;
        neighbProcNo    2;
    }
    procBoundary0to4
    {
        type            processor;
        inGroups        1(processor);
        nFaces          890;
        startFace       54975;
        matchTolerance  0.0001;
        transform       unknown;
        myProcNo        0;
        neighbProcNo    4;
    }
)

// ************************************************************************* //
