/*--------------------------------*- C++ -*----------------------------------*\
| =========                 |                                                 |
| \\      /  F ield         | OpenFOAM: The Open Source CFD Toolbox           |
|  \\    /   O peration     | Version:  2012                                  |
|   \\  /    A nd           | Website:  www.openfoam.com                      |
|    \\/     M anipulation  |                                                 |
\*---------------------------------------------------------------------------*/
FoamFile
{
    version     2.0;
    format      ascii;
    class       polyBoundaryMesh;
    location    "constant/fluid/polyMesh";
    object      boundary;
}
// * * * * * * * * * * * * * * * * * * * * * * * * * * * * * * * * * * * * * //

10
(
    inlet
    {
        type            patch;
        nFaces          0;
        startFace       46886;
    }
    outlet
    {
        type            patch;
        nFaces          255;
        startFace       46886;
    }
    right
    {
        type            wall;
        inGroups        1(wall);
        nFaces          844;
        startFace       47141;
    }
    left
    {
        type            wall;
        inGroups        1(wall);
        nFaces          0;
        startFace       47985;
    }
    top
    {
        type            wall;
        inGroups        1(wall);
        nFaces          1020;
        startFace       47985;
    }
    bottom
    {
        type            wall;
        inGroups        1(wall);
        nFaces          0;
        startFace       49005;
    }
    interface
    {
        type            wall;
        inGroups        1(wall);
        nFaces          707;
        startFace       49005;
    }
    procBoundary7to3
    {
        type            processor;
        inGroups        1(processor);
        nFaces          1008;
        startFace       49712;
        matchTolerance  0.0001;
        transform       unknown;
        myProcNo        7;
        neighbProcNo    3;
    }
    procBoundary7to5
    {
        type            processor;
        inGroups        1(processor);
        nFaces          1345;
        startFace       50720;
        matchTolerance  0.0001;
        transform       unknown;
        myProcNo        7;
        neighbProcNo    5;
    }
    procBoundary7to6
    {
        type            processor;
        inGroups        1(processor);
        nFaces          364;
        startFace       52065;
        matchTolerance  0.0001;
        transform       unknown;
        myProcNo        7;
        neighbProcNo    6;
    }
)

// ************************************************************************* //
