/*--------------------------------*- C++ -*----------------------------------*\
| =========                 |                                                 |
| \\      /  F ield         | OpenFOAM: The Open Source CFD Toolbox           |
|  \\    /   O peration     | Version:  2012                                  |
|   \\  /    A nd           | Website:  www.openfoam.com                      |
|    \\/     M anipulation  |                                                 |
\*---------------------------------------------------------------------------*/
FoamFile
{
    version     2.0;
    format      ascii;
    class       polyBoundaryMesh;
    location    "constant/fluid/polyMesh";
    object      boundary;
}
// * * * * * * * * * * * * * * * * * * * * * * * * * * * * * * * * * * * * * //

11
(
    inlet
    {
        type            patch;
        nFaces          0;
        startFace       46515;
    }
    outlet
    {
        type            patch;
        nFaces          165;
        startFace       46515;
    }
    right
    {
        type            wall;
        inGroups        1(wall);
        nFaces          0;
        startFace       46680;
    }
    left
    {
        type            wall;
        inGroups        1(wall);
        nFaces          963;
        startFace       46680;
    }
    top
    {
        type            wall;
        inGroups        1(wall);
        nFaces          660;
        startFace       47643;
    }
    bottom
    {
        type            wall;
        inGroups        1(wall);
        nFaces          0;
        startFace       48303;
    }
    interface
    {
        type            wall;
        inGroups        1(wall);
        nFaces          2936;
        startFace       48303;
    }
    procBoundary3to1
    {
        type            processor;
        inGroups        1(processor);
        nFaces          1678;
        startFace       51239;
        matchTolerance  0.0001;
        transform       unknown;
        myProcNo        3;
        neighbProcNo    1;
    }
    procBoundary3to2
    {
        type            processor;
        inGroups        1(processor);
        nFaces          544;
        startFace       52917;
        matchTolerance  0.0001;
        transform       unknown;
        myProcNo        3;
        neighbProcNo    2;
    }
    procBoundary3to5
    {
        type            processor;
        inGroups        1(processor);
        nFaces          69;
        startFace       53461;
        matchTolerance  0.0001;
        transform       unknown;
        myProcNo        3;
        neighbProcNo    5;
    }
    procBoundary3to7
    {
        type            processor;
        inGroups        1(processor);
        nFaces          1008;
        startFace       53530;
        matchTolerance  0.0001;
        transform       unknown;
        myProcNo        3;
        neighbProcNo    7;
    }
)

// ************************************************************************* //
