/*--------------------------------*- C++ -*----------------------------------*\
| solids4foam: solid mechanics and fluid-solid interaction simulations        |
| Version:     v2.0                                                           |
| Web:         https://solids4foam.github.io                                  |
| Disclaimer:  This offering is not approved or endorsed by OpenCFD Limited,  |
|              producer and distributor of the OpenFOAM software via          |
|              www.openfoam.com, and owner of the OPENFOAM® and OpenCFD®      |
|              trade marks.                                                   |
\*---------------------------------------------------------------------------*/
FoamFile
{
    version     2.0;
    format      ascii;
    class       dictionary;
    location    "system";
    object      fvSolution;
}
// * * * * * * * * * * * * * * * * * * * * * * * * * * * * * * * * * * * * * //

solvers
{
    "D|DD"
    {
        solver          PCG;
        preconditioner  FDIC;
        tolerance       1e-09;
        relTol          0.99;
    }
}

relaxationFactors
{
    fields
    {
        "DD|D" 0.9;
    }

   // Under-relaxating the DD equation by 0.99-0.9999 can improve convergence in
    // some cases, in particular when there are solidContact boundaries
    DEqn   0.99;
    DDEqn   0.99;
}   

// ************************************************************************* //
