/*--------------------------------*- C++ -*----------------------------------*\
| =========                 |                                                 |
| \\      /  F ield         | OpenFOAM: The Open Source CFD Toolbox           |
|  \\    /   O peration     | Version:  2012                                  |
|   \\  /    A nd           | Website:  www.openfoam.com                      |
|    \\/     M anipulation  |                                                 |
\*---------------------------------------------------------------------------*/
FoamFile
{
    version     2.0;
    format      ascii;
    class       polyBoundaryMesh;
    location    "constant/fluid/polyMesh";
    object      boundary;
}
// * * * * * * * * * * * * * * * * * * * * * * * * * * * * * * * * * * * * * //

12
(
    inlet
    {
        type            patch;
        nFaces          221;
        startFace       47156;
    }
    outlet
    {
        type            patch;
        nFaces          0;
        startFace       47377;
    }
    right
    {
        type            wall;
        inGroups        1(wall);
        nFaces          780;
        startFace       47377;
    }
    left
    {
        type            wall;
        inGroups        1(wall);
        nFaces          0;
        startFace       48157;
    }
    top
    {
        type            wall;
        inGroups        1(wall);
        nFaces          0;
        startFace       48157;
    }
    bottom
    {
        type            wall;
        inGroups        1(wall);
        nFaces          1206;
        startFace       48157;
    }
    interface
    {
        type            wall;
        inGroups        1(wall);
        nFaces          1007;
        startFace       49363;
    }
    procBoundary4to0
    {
        type            processor;
        inGroups        1(processor);
        nFaces          890;
        startFace       50370;
        matchTolerance  0.0001;
        transform       unknown;
        myProcNo        4;
        neighbProcNo    0;
    }
    procBoundary4to1
    {
        type            processor;
        inGroups        1(processor);
        nFaces          21;
        startFace       51260;
        matchTolerance  0.0001;
        transform       unknown;
        myProcNo        4;
        neighbProcNo    1;
    }
    procBoundary4to2
    {
        type            processor;
        inGroups        1(processor);
        nFaces          136;
        startFace       51281;
        matchTolerance  0.0001;
        transform       unknown;
        myProcNo        4;
        neighbProcNo    2;
    }
    procBoundary4to5
    {
        type            processor;
        inGroups        1(processor);
        nFaces          389;
        startFace       51417;
        matchTolerance  0.0001;
        transform       unknown;
        myProcNo        4;
        neighbProcNo    5;
    }
    procBoundary4to6
    {
        type            processor;
        inGroups        1(processor);
        nFaces          1097;
        startFace       51806;
        matchTolerance  0.0001;
        transform       unknown;
        myProcNo        4;
        neighbProcNo    6;
    }
)

// ************************************************************************* //
